
import enum
from typing import ( 
    Any,
    List,
    Dict,
    Tuple
)

from .fcscore_core import *
from .fcscore_geometry import *

class ElementDimension(enum.Enum):
	ZERO: ElementDimension
	ONE: ElementDimension
	TWO: ElementDimension
	THREE: ElementDimension

class ElementShape(enum.Enum):
    """
    Specific element types that follow the GMSH convention.
    """
    LINE_2NODE: ElementShape
    TRIANGLE_3NODE: ElementShape
    QUADRANGLE_4NODE: ElementShape
    TETRAHEDRON_4NODE: ElementShape
    HEXAHEDRON_8NODE: ElementShape
    PRISM_6NODE: ElementShape
    PYRAMID_5NODE: ElementShape
    LINE_3NODE_SECOND_ORDER: ElementShape
    TRIANGLE_6NODE_SECOND_ORDER: ElementShape
    QUADRANGLE_9NODE_SECOND_ORDER: ElementShape
    TETRAHEDRON_10NODE_SECOND_ORDER: ElementShape
    HEXAHEDRON_27NODE_SECOND_ORDER: ElementShape
    PRISM_18NODE_SECOND_ORDER: ElementShape
    PYRAMID_14NODE_SECOND_ORDER: ElementShape
    POINT_1NODE: ElementShape
    QUADRANGLE_8NODE_SECOND_ORDER: ElementShape
    HEXAHEDRON_20NODE_SECOND_ORDER: ElementShape
    PRISM_15NODE_SECOND_ORDER: ElementShape

class SolverProfile(enum.Enum):
    UNDEFINED: SolverProfile
    CODE_ASTER: SolverProfile
    ABAQUS: SolverProfile

class GenericElementType(enum.Enum):
    NOT_SPECIFIED: GenericElementType
    ORPHAN_NODE: GenericElementType
    MASS: GenericElementType
    SPRING: GenericElementType
    DASHPOT: GenericElementType
    PARTICLE: GenericElementType
    BEAM: GenericElementType
    TRUSS: GenericElementType
    KINCOUP: GenericElementType
    DISTCOUP: GenericElementType
    JOINT: GenericElementType
    STRUCTURAL: GenericElementType
    CONTINUUM: GenericElementType

class SolverElementType(enum.Enum):
    """
    Physical element models representing different desired physics modeling.
    """
    NOT_SPECIFIED: SolverElementType
    NODE: SolverElementType
    MASS: SolverElementType
    SPRING1: SolverElementType
    DASHPOT1: SolverElementType
    PD3D: SolverElementType
    PC3D: SolverElementType
    POU_D_T: SolverElementType
    POU_D_E: SolverElementType
    POU_C_T: SolverElementType
    BARRE: SolverElementType
    DIS_T: SolverElementType
    DIS_TR: SolverElementType
    POU_D_TG: SolverElementType
    POU_D_T_GD: SolverElementType
    RBE2: SolverElementType
    RBE3: SolverElementType
    DKT: SolverElementType
    DST: SolverElementType
    DKTG: SolverElementType
    Q4G: SolverElementType
    Q4GG: SolverElementType
    GRILLE_EXCENTRE: SolverElementType
    GRILLE_MEMBRANE: SolverElementType
    MEMBRANE: SolverElementType
    COQUE: SolverElementType
    _3D: SolverElementType
    _3D_SI: SolverElementType
    _3D_DIAG: SolverElementType
    T3D2: SolverElementType
    B31: SolverElementType
    B32: SolverElementType
    B33: SolverElementType
    RB3D2: SolverElementType
    SPRING2: SolverElementType
    SPRINGA: SolverElementType
    DASHPOT2: SolverElementType
    DASHPOTA: SolverElementType
    JOINTC: SolverElementType
    DCOUP3D: SolverElementType
    KCOUP3D: SolverElementType
    JOINT3D: SolverElementType
    STRI3: SolverElementType
    S3: SolverElementType
    S3R: SolverElementType
    S3RS: SolverElementType
    DS3: SolverElementType
    S4: SolverElementType
    S4R: SolverElementType
    S4RS: SolverElementType
    S4RSW: SolverElementType
    S4R5: SolverElementType
    DS4: SolverElementType
    C3D4: SolverElementType
    C3D4H: SolverElementType
    C3D5: SolverElementType
    C3D5H: SolverElementType
    C3D6: SolverElementType
    C3D6H: SolverElementType
    C3D8: SolverElementType
    C3D8H: SolverElementType
    C3D8I: SolverElementType
    C3D8IH: SolverElementType
    C3D8R: SolverElementType
    C3D8RH: SolverElementType
    C3D8S: SolverElementType
    C3D8SH: SolverElementType

class MeshElementOrder(enum.Enum):
	FIRST: MeshElementOrder
	SECOND: MeshElementOrder
      
class Mesh2DAlgorithmChoice(enum.Enum):
	MESH_ADAPT: Mesh2DAlgorithmChoice
	DELAUNAY: Mesh2DAlgorithmChoice
	FRONTAL: Mesh2DAlgorithmChoice
	BAMG: Mesh2DAlgorithmChoice
	DELAUNAY_QUAD: Mesh2DAlgorithmChoice
      
class Target3DMeshType(enum.Enum):
    """
	Available easy-to-understand 3D element type choice for meshing.
	"""
    TETRA: Target3DMeshType
    HEXA: Target3DMeshType
	
class Mesh3DAlgorithmChoice(enum.Enum):
	BASE_TETRAHEDRALIZATION: Mesh3DAlgorithmChoice

class RecombineAll(enum.Enum):
    FALSE: RecombineAll
    TRUE: RecombineAll

class RecombinationAlgorithm(enum.Enum):
    Simple: RecombinationAlgorithm
    Blossom: RecombinationAlgorithm
    SimpleFullQuad: RecombinationAlgorithm
    BlossomFullQuad: RecombinationAlgorithm

class RecombineNodePositioning(enum.Enum):
    FALSE: RecombineNodePositioning
    TRUE: RecombineNodePositioning

class EdgeSeedingParameters:
    def __init__(self, 
                 number_of_nodes: int, 
                 edge_start: XYZ, 
                 edge_mid: XYZ, 
                 edge_end: XYZ) -> None:
        """
        Parameters for seeding an edge.

        :param number_of_nodes: Number of nodes to place along the edge.
        :param edge_start: Start point of the edge.
        :param edge_mid: Midpoint of the edge.
        :param edge_end: End point of the edge.
        """
        self.number_of_nodes: int
        self.edge_start: XYZ
        self.edge_mid: XYZ
        self.edge_end: XYZ

class Mesh1DSettings:
    def __init__(self, 
                 element_size: float,  
                 element_order: MeshElementOrder):
        """
        Initializes the Mesh1DSettings with the given parameters.
        """
        ...

    def set_element_size(self, element_size: float):
        """
        Sets the size of the elements.

        :param element_size: Size of the elements.
        """
        ...

    def set_element_order(self, element_order: MeshElementOrder):
        """
        Sets the order of the elements.

        :param element_order: Order of the elements.
        """
        ...

    def get_element_size(self) -> float:
        """
        Gets the size of the elements.

        :return: Size of the elements.
        """
        ...

    def get_element_order(self) -> MeshElementOrder:
        """
        Gets the order of the elements.

        :return: Order of the elements.
        """
        ...

class Mesh2DSettings:
    def __init__(self,
                 element_size: float,
                 element_order: MeshElementOrder,
                 algorithm_choice: Mesh2DAlgorithmChoice,
                 recombine_all: RecombineAll,
                 recombination_algorithm: RecombinationAlgorithm,
                 recombine_minimum_quality: float,
                 recombine_node_positioning: RecombineNodePositioning,
                 recombine_optimize_topology: int):
        """
        Initializes the Mesh2DSettings with the given parameters.

        :param element_size: Size of the elements.
        :param element_order: Order of the elements.
        :param algorithm_choice: Choice of 2D mesh algorithm.
        :param recombine_all: Whether to recombine all elements.
        :param recombination_algorithm: Algorithm to use for recombination.
        :param recombine_minimum_quality: Minimum quality for recombination.
        :param recombine_node_positioning: Node positioning strategy for recombination.
        :param recombine_optimize_topology: Topology optimization level for recombination.
        """
        ...

    @staticmethod
    def get_default_tria_mesh_settings(element_size: float) -> "Mesh2DSettings":
        """
        Returns the default Mesh2DSettings for a triangular mesh with the given element size.

        :param element_size: Size of the elements.
        :return: Default Mesh2DSettings for a triangular mesh.
        """
        ...

    def set_element_size(self, element_size: float):
        """
        Sets the size of the elements.

        :param element_size: Size of the elements.
        """
        ...

    def set_element_order(self, element_order: MeshElementOrder):
        """
        Sets the order of the elements.

        :param element_order: Order of the elements.
        """
        ...

    def set_recombine_all(self, recombine_all: RecombineAll):
        """
        Sets whether to recombine all elements.

        :param recombine_all: Recombination setting.
        """
        ...

    def set_recombine_minimum_quality(self, recombine_minimum_quality: float):
        """
        Sets the minimum quality for recombination.

        :param recombine_minimum_quality: Minimum quality for recombination.
        """
        ...

    def set_recombine_node_positioning(self, recombine_node_positioning: RecombineNodePositioning):
        """
        Sets the node positioning strategy for recombination.

        :param recombine_node_positioning: Node positioning strategy.
        """
        ...

    def set_recombine_optimize_topology(self, recombine_optimize_topology: int):
        """
        Sets the topology optimization level for recombination.

        :param recombine_optimize_topology: Topology optimization level.
        """
        ...

    def get_element_size(self) -> float:
        """
        Gets the size of the elements.

        :return: Size of the elements.
        """
        ...

    def get_element_order(self) -> MeshElementOrder:
        """
        Gets the order of the elements.

        :return: Order of the elements.
        """
        ...

    def get_mesh_algorithm_choice(self) -> Mesh2DAlgorithmChoice:
        """
        Gets the choice of 2D mesh algorithm.

        :return: Choice of 2D mesh algorithm.
        """
        ...

    def get_recombine_all(self) -> RecombineAll:
        """
        Gets whether all elements are recombined.

        :return: Recombination setting.
        """
        ...

    def get_recombination_algorithm(self) -> RecombinationAlgorithm:
        """
        Gets the algorithm used for recombination.

        :return: Recombination algorithm.
        """
        ...

    def get_recombine_minimum_quality(self) -> float:
        """
        Gets the minimum quality for recombination.

        :return: Minimum quality for recombination.
        """
        ...

    def get_recombine_node_positioning(self) -> RecombineNodePositioning:
        """
        Gets the node positioning strategy for recombination.

        :return: Node positioning strategy.
        """
        ...

    def get_recombine_optimize_topology(self) -> int:
        """
        Gets the topology optimization level for recombination.

        :return: Topology optimization level.
        """
        ...
    def set_edge_seeding(self, edge_seeding_params: List[EdgeSeedingParameters]) -> None:
        """
        Sets the edge seeding parameters.
        :param edge_seeding_params: List of edge seeding parameters.
        """
        ...
    def get_edge_seeding(self) -> List[EdgeSeedingParameters]:
        """
        Gets the edge seeding parameters.
        :return: List of edge seeding parameters.
        """
        ...

class MeshNETGEN2DSettings:
    def __init__(self,
                 element_size: float,
                 curvature_safety: float,
                 surf_mesh_curv_fac: float,
                 segments_per_edge: int,
                 grading: float,
                 # chart_dist_fac: float,
                 line_length_fac: float,
                 close_edge_fac: float,
                 # minedgelen: float,
                 quad_dominated: bool,
                 opt_steps_2d: int,
                 opt_steps_3d: int,
                 second_order: bool):
        """
        Initializes the Mesh2DSettings with the given parameters.

        :param element_size: Size of the elements.
        :param element_order: Order of the elements.
        :param algorithm_choice: Choice of 2D mesh algorithm.
        :param recombine_all: Whether to recombine all elements.
        :param recombination_algorithm: Algorithm to use for recombination.
        :param recombine_minimum_quality: Minimum quality for recombination.
        :param recombine_node_positioning: Node positioning strategy for recombination.
        :param recombine_optimize_topology: Topology optimization level for recombination.
        """
        ...

    def set_element_size(self, element_size: float):
        """
        Sets the size of the elements.

        :param element_size: Size of the elements.
        """
        ...

    def set_curvaturesafety(self, curvature_safety: float):
        """
        
        """
        ...

    def set_surfmeshcurvfac(self, surf_mesh_curv_fac: float):
        """
        
        """
        ...

    def set_segmentsperedge(self, segments_per_edge: int):
        """

        """
        ...

    def set_grading(self, grading: float):
        """

        """
        ...

    # def set_chartdistfac(self, chart_dist_fac: float):
    #     """

    #     """
    #     ...

    def set_linelengthfac(self, line_length_fac: float ):
        """

        """
        ...

    def set_closeedgefac(self, close_edge_fac: float):
        """

        """
        ...

    # def set_minedgelen(self, minedgelen: float):
    #     """

    #     """
    #     ...

    def set_quad_dominated(self, quad_dominated: bool):
        """

        """
        ...

    def set_optsteps2d(self, opt_steps_2d: int):
        """

        """
        ...

    def set_optsteps3d(self, opt_steps_3d: int):
        """

        """
        ...

    def set_secondorder(self, second_order: bool):
        """

        """
        ...

    def get_element_size(self) -> float:
        """

        """
        ...

    def get_curvaturesafety(self) -> float:
        """
        
        """
        ...

    def get_surfmeshcurvfac(self) -> float:
        """
        
        """
        ...

    def get_segmentsperedge(self) -> int:
        """

        """
        ...

    def get_grading(self) -> float:
        """

        """
        ...

    # def get_chartdistfac(self) -> float:
    #     """

    #     """
    #     ...

    def get_linelengthfac(self) -> float:
        """

        """
        ...

    def get_closeedgefac(self) -> float:
        """

        """
        ...

    # def get_minedgelen(self) -> float:
    #     """

    #     """
    #     ...

    def get_quad_dominated(self) -> bool:
        """

        """
        ...

    def get_optsteps2d(self) -> int:
        """

        """
        ...

    def get_optsteps3d(self) -> int:
        """

        """
        ...

    def get_secondorder(self) -> bool:
        """

        """
        ...

class Mesh3DSettings:
    def __init__(self, 
                 element_size: float, 
                 element_type: Target3DMeshType, 
                 algorithm_choice: Mesh3DAlgorithmChoice, 
                 element_order: MeshElementOrder):
        """
        Initializes the Mesh3DSettings with the given parameters.

        :param element_size: Size of the elements.
        :param element_type: Type of the 3D elements.
        :param algorithm_choice: Choice of 3D mesh algorithm.
        :param element_order: Order of the elements.
        """
        ...

    def set_element_size(self, element_size: float):
        """
        Sets the size of the elements.

        :param element_size: Size of the elements.
        """
        ...

    def set_element_type(self, element_type: Target3DMeshType):
        """
        Sets the type of the 3D elements.

        :param element_type: Type of the 3D elements.
        """
        ...

    def set_element_order(self, element_order: MeshElementOrder):
        """
        Sets the order of the elements.

        :param element_order: Order of the elements.
        """
        ...

    def get_element_size(self) -> float:
        """
        Gets the size of the elements.

        :return: Size of the elements.
        """
        ...

    def get_element_type(self) -> Target3DMeshType:
        """
        Gets the type of the 3D elements.

        :return: Type of the 3D elements.
        """
        ...

    def get_element_order(self) -> MeshElementOrder:
        """
        Gets the order of the elements.

        :return: Order of the elements.
        """
        ...

    def get_mesh_algorithm(self) -> Mesh3DAlgorithmChoice:
        """
        Gets the choice of 3D mesh algorithm.

        :return: Choice of 3D mesh algorithm.
        """
        ...

class MeshFactory:
    def __init__(self): ...
    @staticmethod
    def set_export_directory(export_path: str): ...
    @staticmethod
    def get_export_directory() -> str: ...
    def create_1d_mesh(self, geom_object: GEOM_Object, mesh_settings: Mesh1DSettings) -> Mesh: ...
    def create_2d_mesh(self, geom_object_face: GEOM_Object, mesh_settings: Mesh2DSettings) -> Mesh: ...
    def create_2d_mesh_fixed_boundary(self, geom_object_face: GEOM_Object, mesh_settings: Mesh2DSettings) -> Mesh: ...

class ElementShapeToModel:
    def __init__(self, solver_element_type: SolverElementType, element_shape: ElementShape): ...
    Shape: ElementShape
    ElementModel : SolverElementType
    IsValid: bool

class AddedElementsOfShapeAndType:
    ElementIDs: List[int]
    ElementShapeType: ElementShape
    ElementModelType: SolverElementType

class MeshTransaction:
    # def get_added_element_ids_to_model_type(self) -> Dict[int, SolverElementType]: ...
    meshComponentId: int
    # AddedElements: List[AddedElementsOfShapeAndType]
    # DeletedElementIDs: List[int]
    # DeletedNodeIDs: List[int]
    # DeletedNodeIDs: List[int]
    removedElementIds: List[int]
    orphanedNodeIds: List[int]
    elements: List[int]
    connectivity: List[List[int]]
    existingNodes: List[int]
    addedNodes: List[float]

class Mesher3D:
	@staticmethod
	def generate_3d_mesh(boundary_element_ids: set, mesh_settings: Mesh3DSettings) -> Mesh: ...
	
class MeshReferenceType(enum.Enum):
	UNDETERMINED: MeshReferenceType
	ELEMENT_SET: MeshReferenceType
	NODE_SET: MeshReferenceType

class ElementCoupling:
    def __init__(self, mesh_component_id: int, master_node_id: int): ...
    mesh_component_id: int
    master_node_id: int
    node_ids: set[int]
    beam_repr_ids: set[int]
    weights: list[float]
    def is_kinematic_coupling(self) -> bool: ...
    def get_beam_repr_ids(self) -> List[int]: ...
    def __repr__(self) -> str: ...

class ElementReferences:
     ElementId: int
     ComponentMeshId: int
     ElementSetStorageID: int
     WasFound: bool

class Node:
    NodeId: int
    Position: XYZ

class Element:
    ElementId: int
    NodeIDs: list[int]
    ElementReferences: ElementReferences
    ElementShape: ElementShape
    ElementModel: SolverElementType
    
class ElementAttributes:
    def __init__(self, degreesOfFreedom: List[float], weight: float, genericElementType: GenericElementType): ...
    degreesOfFreedom: List[float]
    weight: float
    genericElementType: GenericElementType

class QualityMeasure(enum.Enum):
    """
    Quality measures that can be requested from GMSH.
    """
    MIN_J: QualityMeasure 
    MAX_J: QualityMeasure
    MIN_SJ: QualityMeasure
    MIN_SICN: QualityMeasure
    MIN_SIGE: QualityMeasure
    GAMMA: QualityMeasure
    MIN_ISOTROPY: QualityMeasure
    ANGLE_SHAPE: QualityMeasure
    MIN_EDGE: QualityMeasure
    MAX_EDGE: QualityMeasure

class Quality2DResult:
    """
    Represents the result of a 2D quality analysis, 
    including element tags and their quality values.
    """
    ElementIDs: List[int]
    ElementsQuality: List[float]

class MeshFileFormat(enum.Enum):
	MSH: MeshFileFormat
	MED: MeshFileFormat
	STL: MeshFileFormat
	INP: MeshFileFormat
	
class Mesh:
    def __init__(self, open_new_mesh_model: bool = False):
        """
        Initializes the Mesh class, optionally opening a new mesh model.
        :param open_new_mesh_model: A boolean to specify if a new mesh model should be opened.
        """
        ...

    def set_file_name(self, file_name: str) -> None:
        """
        Sets the name of the mesh file.
        :param file_name: The file name to set.
        """
        ...

    def get_file_name(self) -> str:
        """
        Retrieves the name of the mesh file.
        :return: The name of the mesh file as a string.
        """
        ...

    def load_mesh(self, mesh_directory: str, mesh_file_format: MeshFileFormat) -> bool:
        """
        Loads a mesh from the specified directory and file format.
        :param mesh_directory: The directory where the mesh file is located.
        :param mesh_file_format: The format of the mesh file.
        :return: True if the mesh is successfully loaded, otherwise False.
        """
        ...

    def write_mesh(self, export_directory: str, mesh_file_format: MeshFileFormat) -> str:
        """
        Writes the mesh to the specified directory in the given file format.
        :param export_directory: The directory where the mesh will be exported.
        :param mesh_file_format: The format in which the mesh will be exported.
        :return: The path of the exported mesh file as a string.
        """
        ...

    def get_source_mesh_path(self) -> str:
        """
        Retrieves the path of the source mesh.
        :return: The source mesh path as a string.
        """
        ...

    def get_source_mesh_format(self) -> MeshFileFormat:
        """
        Retrieves the format of the source mesh.
        :return: The source mesh format.
        """
        ...
        
    def get_all_elements(self) -> List[Element]:
        """
        :return: All elements that comprise the mesh.
        """
        ...

    def get_node_definition(self, node_id: int) -> Node:
        """
        Retrieves the definition of a specific node.
        :param node_id: The ID of the node.
        :return: The definition of the node.
        """
        ...

    def get_element_definition(self, element_id: int, compute_references: bool) -> Element:
        """
        Retrieves the definition of a specific element.
        :param element_id: The ID of the element.
        :param compute_references: If set to true, will also compute what component mesh-es reference it.
        This only makes sense for master mesh queries.
        :return: The definition of the element.
        """
        ...

    def get_elements_associated_with_node(self, node_id: int) -> List[Element]:
        """
        Retrieves the elements associated with a given node ID.
        :param node_id: The ID of the node.
        :return: A list of elements associated with the node.
        """
        ...

    def get_elements_near_position(self, position: XYZ) -> List[Element]:
        """
        Retrieves the elements that are near a specific position in space.
        :param position: The position in space as an XYZ object.
        :return: A list of elements near the position.
        """
        ...

    def get_boundary_node_ids(self, element_ids: List[int]) -> List[int]:
        """
        Retrieves the boundary node IDs for a given list of element IDs.
        :param element_ids: A list of element IDs.
        :return: A list of boundary node IDs.
        """
        ...
        
    def get_bounding_wires_for_elements(self, element_ids: List[int]) -> List[GEOM_Object]:
        """
        Constructs wires that bound the element. If an empty list is returned it means the mesh 
        is enclosed completely.
        
        :param element_ids: A list of element IDs.
        :return: A list of closed wires that bound the mesh.
        """
        ...
    
    def is_valid(self) -> bool:
        """
        Check if the mesh instance is valid.
        
        :return: True if the mesh was successfully created, False if there was an error.
        """
        ...
    
    def get_error_message(self) -> str:
        """
        Get the error message if the mesh is invalid.
        
        :return: Error message string, empty if mesh is valid.
        """
        ...

	
class MasterMesh:
    @staticmethod
    def run_local_debug_viewer() -> None:
        """
        Only works locally in a development environment. Spawns a simple UI,
        to quick check the mesh. 
        """
        ...

    @staticmethod
    def is_node_orphan(node_id: int) -> bool:
        """
        Places a standalone mesh and inserts it into the master mesh.
        :return: True, if the node is orphan.
        """
        ...

    @staticmethod
    def create_node_set(comp_id: int, node_ids: set[int]) -> NodeSet:
        """
        Constructs a node set from the provided node IDs.

        :param comp_id: Unique identifier of the mesh instance.
        :param node_ids: Element IDs that we need to group together.
        :return: Pointer to newly constructed node set.
        """
        ...

    @staticmethod
    def get_mesh_set(comp_id: int) -> MeshReference:
        """
        Retrieves a mesh reference by its component ID and type.

        :param comp_id: Unique identifier of the mesh instance.
        :return: Pointer to the requested mesh reference.
        """
        ...

    @staticmethod
    def create_element_set(comp_id: int, element_ids: set[int]) -> ElementSet:
        """
        Constructs an element set from the provided element IDs.

        :param comp_id: Unique identifier of the mesh instance.
        :param element_ids: Element IDs that we need to group together.
        :return: Pointer to newly constructed element set.
        """
        ...

    @staticmethod
    def insert_mesh_reference(mesh_reference: MeshReference) -> bool:
        """
        Inserts a mesh reference into the master mesh.

        :param mesh_reference: Reference mesh to be inserted.
        :return: True if insertion was successful.
        """
        ...

    @staticmethod
    def delete_mesh_set(comp_id: int) -> bool:
        """
        Deletes the mesh reference for a given component ID.

        :param comp_id: Unique identifier of the mesh reference.
        :return: True if deletion was successful.
        """
        ...
        
    @staticmethod
    def add_nodes(positions: List[XYZ], is_preview: bool) -> List[Node]:
        """
        Adds new node to the master mesh in bulk. Always use this method, if possible. 

        :param XYZ: position of the node to be placed
        :return: Newly placed Nodes' definitions
        """
        ...

    @staticmethod
    def add_node(xyz: XYZ, is_preview: bool) -> Node:
        """
        Adds a new node to the master mesh.

        :param XYZ: position of the node to be placed
        :return: Newly placed Node's definition
        """
        ...

    @staticmethod
    def get_all_elements() -> List[Element]:
        """
        :return: All element definitions that comprise the mesh.
        """
        ...

    @staticmethod
    def get_all_node_ids() -> List[int]:
        """
        :return: All node ids that comprise the whole model.
        """
        ...
        
    @staticmethod
    def get_deleted_node_ids() -> List[int]:
        """
        :return: All node ids that were deleted from the master mesh.
        """
        ...
        
    @staticmethod
    def get_active_node_ids() -> List[int]:
        """
        :return: All node ids that are currently active in the master mesh.
        """
        ...
        
    @staticmethod
    def get_node_definition(node_id: int) -> Node: ...
        
    @staticmethod
    def get_element_definition(element_id: int) -> Element: ...

    @staticmethod
    def get_distributed_couplings() -> List[ElementCoupling]: ...
    """Return **all** distributing (weighted) couplings in the model."""

    @staticmethod
    def get_kinematic_couplings() -> List[ElementCoupling]: ...
    """Return **all** kinematic (rigid) couplings in the model."""

    @staticmethod
    def get_elements_associated_with_node(node_id: int) -> List[Element]:
        """
        Retrieves the elements associated with a given node ID.
        :param node_id: The ID of the node.
        :return: A list of elements associated with the node.
        """
        ...

    @staticmethod
    def get_elements_near_position(position: XYZ) -> List[Element]:
        """
        Retrieves the elements that are near a specific position in space.
        :param position: The position in space as an XYZ object.
        :return: A list of elements near the position.
        """
        ...

    @staticmethod
    def get_boundary_node_ids(element_ids: List[int]) -> List[int]:
        """
        Retrieves the boundary node IDs for a given list of element IDs.
        :param element_ids: A list of element IDs.
        :return: A list of boundary node IDs.
        """
        ...
        
    @staticmethod
    def get_bounding_wires_for_elements(element_ids: List[int]) -> List[GEOM_Object]:
        """
        Constructs wires that bound the element. If an empty list is returned it means the mesh 
        is enclosed completely.
        
        :param element_ids: A list of element IDs.
        :return: A list of closed wires that bound the mesh.
        """
        ...
        
    @staticmethod
    def get_boundary_node_pairs(element_ids: List[int]) -> List[List[int]]:
        """
        Retrieves the boundary node IDs as pairs that represent free edges for a given 
        list of element IDs.
        :param element_ids: A list of element IDs.
        :return: A list of boundary node IDs pairs.
        """
        ...

    @staticmethod
    def delete_nodes(
          node_ids: set[int],
          removed_associated_elements: set[int],
          removed_orphaned_node_ids: set[int]) -> bool:
        """
        Deletes nodes from the master mesh.

        :param mesh_component_id: Helper ID of the mesh component from which nodes were deleted.
        :param node_ids: Node IDs to be deleted.
        :param removed_associated_elements: Set to store IDs of removed associated elements.
        :param removed_orphaned_node_ids: Populates this empty list with the orphaned node IDs.
        :return: True if deletion was successful.
        """
        ...

    @staticmethod
    def add_elements(
        mesh_component_id: int, 
        spec_elem_types: List[ElementShape],
        existing_node_ids: List[int],
        added_node_ids: List[float],
        organized_node_ids: List[List[int]],
        elem_models: List[SolverElementType],
        element_attributes: ElementAttributes,
        is_temporary: bool
        ) -> MeshTransaction:
        """
        Adds multiple elements in bulk to master mesh. Always use this method, if possible.

        :param mesh_component_id: The mesh component that was active when the element was created.
        :param spec_elem_type: Specific element type for the element.
        :param organized_node_ids: Collection of node IDs used to construct the element.
        :param elem_models: Physical element models to be applied to elements.
        :return: Newly placed elements information
        """
        ...

    @staticmethod
    def add_element(
        mesh_component_id: int, 
        spec_elem_type: ElementShape,
        existing_node_ids: List[int],
        added_node_ids: List[float],
        node_ids: list[int]) -> MeshTransaction:
        """
        Adds an element to the master mesh.

        :param mesh_component_id: The mesh component that was active when the element was created.
        :param spec_elem_type: Specific element type for the element.
        :param node_ids: Collection of node IDs used to construct the element.
        :return: Newly placed element information
        """
        ...

    @staticmethod
    def delete_elements(
		  element_ids: set[int],
          removed_orphaned_ids: list[int]) -> bool:
        """
        Deletes elements from the master mesh.

        :param element_ids: Element IDs to be deleted.
        :param removed_orphaned_ids: Will populate this list with NodeIDs that were removed
        :return: True if deletion was successful.
        """
        ...

    @staticmethod
    def check_quality_2d(
		  quality_measure: QualityMeasure,
          comparison_condition: ComparisonCondition,
          limit: float) -> Quality2DResult:
        """
        Evaluates what elements do not satisfy the provided quality measure.
        """
        ...
        
    @staticmethod
    def reverse_normals(
		  element_ids: List[int],
          removed_element_ids: List[int],
          selected_element_types: Dict[str, int]
          ) -> List[MeshTransaction]:
        """
        Flips the normal of the provided elements. Note, this method will
        only work for tria and quad elements!

        :param element_ids: Element ID references that we want to reverse
        :param removed_element_ids: All the elements that were deleted after flipping.
        :return: All flipped element definitions
        """
        ...
         
    @staticmethod
    def translate_nodes(
        selected_node_ids: List[int], 
        vector_of_translation: List[float], 
        selected_element_types: Dict[str, int],
        is_preview: bool
        ) -> List[MeshTransaction]:
        """
        Translates the selected nodes.
        """
        ...
    
    @staticmethod
    def merge_nodes(
        slave_node_id: List[int], 
        master_node_id: int, 
        # removed_element_ids: List[int],
        selected_element_types: Dict[str, int],
        is_preview: bool
        ) -> MeshTransaction:
        """
        Merges the slave node with the master node. Optionally removes duplicates and modifies elements accordingly.

        :param slave_node_component_id: Component ID of the slave node.
        :param slave_node_id: ID of the slave node.
        :param master_node_component_id: Component ID of the master node.
        :param master_node_id: ID of the master node.
        :param removed_element_ids: List to store IDs of removed elements.
        :param remove_duplicates: Flag to indicate whether to remove duplicates.
        :return: List of added elements.
        """
        ...
        
    @staticmethod
    def merge_by_elements(
         selected_element_ids: List[int],
         tolerance: float,
         selected_element_types: Dict[str, int]
         ) -> List[MeshTransaction]:
        """ 
        Within tolerance, closest node pairs are found and are merged.

        :param selected_element_ids: IDs of the elements to whose nodes the merging will be applied.
        :param tolerance: The tolerance within which any two nodes need to be merged
        :param removed_element_ids: This list will be populated with element IDs that were removed.
        :param merge_same_element_nodes: By default, we may merge nodes of the same elements and thus
        degrading the element or completely removing it.
        :return: List of added elements.
        """

    @staticmethod
    def get_free_element_faces(
        selected_element_ids: List[int]
    ) -> List[List[int]]:
        """
        Creates 2d boundary elements
        """
        ...

    @staticmethod
    def copypaste_cutpaste_elements_nodes(
        source_node_ids: set[int], 
        source_element_ids: set[int],
        target_component_id: int,
        selected_element_types: Dict[str, int],
        perform_cut_paste: bool
        ) -> MeshTransaction:
        """
        Reassigns elements and nodes from the source component to the target component.

        :param source_node_ids: Set of source node IDs.
        :param source_element_ids: Set of source element IDs.
        :param source_component_id: ID of the source component.
        :param target_component_id: ID of the target component.
        :param perform_cut_paste: Flag to indicate whether to perform cut-paste operation.
        :return: A tuple containing a list of new nodes, a list of new elements, 
            and a list of orphaned node IDs
        """
        ...

    @staticmethod
    def export_mesh_file(mesh_file_format: MeshFileFormat, mesh_component_id: int = -1) -> bool:
        """
        Exports a MED file with the sets defined there.

		:param mesh_file_format: The desired output format that we want to export the mesh as.
        :param mesh_component_id: If specified, writes out a mesh file for the corresponding component mesh ID.
        :return: True if the file export was successful.
        """
        ...
        
    @staticmethod
    def get_element_dimension_by_type(elem_type: ElementShape) -> int:
        """
        Returns the element dimension based on its type.
        :param: elem_type: A GMSH definition of an element type.
        """
        ...

class MeshReference:
	def get_component_id(self) -> int: ...
	def add_node_id(self, node_id: int) -> None: ...
	def add_element_id(self, element_id: int) -> None: ...
	def get_node_ids(self) -> set: ...
	def set_node_ids(self, node_ids: set) -> None: ...
	def get_element_ids(self) -> set: ...
	def set_element_ids(self, element_ids: set) -> None: ...
	def get_mesh_reference_type(self) -> MeshReferenceType: ...
	def modify_constituent_ids(self, 
							added_element_ids: set,
							removed_element_ids: set,
							added_node_ids: set,
							removed_node_ids: set) -> bool: ...

class ComponentMesh(Mesh):
    def write_mesh_asset_file(self) -> None: ...
    def get_component_mesh_id(self) -> int: ...
    def is_component_mesh_empty(self) -> bool: ...
    def get_all_elements(self) -> List[Element]: ...
    def get_elements_by_dimension(self, dimension: ElementDimension) -> ElementSet: ...


class ElementSet(MeshReference): ...
class NodeSet(MeshReference): ...
